Version 4
SHEET 1 880 680
WIRE -208 -208 -336 -208
WIRE -352 -128 -608 -128
WIRE -16 -128 -352 -128
WIRE 64 -128 -16 -128
WIRE 64 -96 64 -128
WIRE 64 -96 48 -96
WIRE -272 32 -496 32
WIRE -16 32 -16 -128
WIRE -16 32 -48 32
WIRE -608 48 -608 -128
WIRE 48 80 48 -16
WIRE 48 80 0 80
WIRE -272 96 -400 96
WIRE 0 96 0 80
WIRE 0 96 -48 96
WIRE -336 160 -336 -208
WIRE -272 160 -336 160
WIRE 48 160 -48 160
WIRE -352 224 -352 -128
WIRE -272 224 -352 224
WIRE -32 224 -48 224
WIRE -400 272 -400 96
WIRE 48 272 48 160
WIRE 48 272 -400 272
WIRE -400 288 -400 272
WIRE -32 304 -32 224
WIRE -608 368 -608 128
WIRE -496 368 -496 32
WIRE -496 368 -608 368
WIRE -400 368 -400 352
WIRE -400 368 -496 368
WIRE -32 368 -400 368
WIRE -400 416 -400 368
FLAG -400 416 0
FLAG -208 -208 OUT
SYMBOL Misc\\NE555 -160 128 R0
SYMATTR InstName U1
SYMBOL cap -48 304 R0
SYMATTR InstName C1
SYMATTR Value 0.01µ
SYMBOL polcap -416 288 R0
SYMATTR InstName C2
SYMATTR Value 150n
SYMBOL res 32 -112 R0
SYMATTR InstName R1
SYMATTR Value 1k
SYMBOL res 32 64 R0
SYMATTR InstName R2
SYMATTR Value 10.4318k
SYMBOL voltage -608 32 R0
SYMATTR InstName V1
SYMATTR Value 5
TEXT -642 440 Left 2 !.tran 0.1
